SC_Cases/matpower_LV_semiurban.m
function mpc = matpower_LV_semiurban
%Please see CASEFORMAT for details on the case file format.
% MATPOWER Case Format : Version 2
mpc.version = '2';
%-----  Power Flow Data  -----%%
%% system MVA base
mpc.baseMVA = 0.01;
%% bus data
%bus_i type Pd	Qd Gs Bs area Vm Va baseKV zone	Vmax Vmin
mpc.bus = [
1	3	0	0	0	0	1	1	0	20	1	1.0	1.0;
2	1	0.0012	0.00036	0	0	1	1	0	0.4	1	1.1	0.9;
3	1	0.004	0.0012	0	0	1	1	0	0.4	1	1.1	0.9;
4	1	0.004	0.0012	0	0	1	1	0	0.4	1	1.1	0.9;
5	1	0.004	0.0012	0	0	1	1	0	0.4	1	1.1	0.9;
6	1	0.004	0.0012	0	0	1	1	0	0.4	1	1.1	0.9;
7	1	0.0012	0.00036	0	0	1	1	0	0.4	1	1.1	0.9;
8	1	0.0012	0.00036	0	0	1	1	0	0.4	1	1.1	0.9;
9	1	0.002	0.0006	0	0	1	1	0	0.4	1	1.1	0.9;
10	1	0.0012	0.00036	0	0	1	1	0	0.4	1	1.1	0.9;
11	1	0.0012	0.00036	0	0	1	1	0	0.4	1	1.1	0.9;
12	1	0.002	0.0006	0	0	1	1	0	0.4	1	1.1	0.9;
13	1	0.002	0.0006	0	0	1	1	0	0.4	1	1.1	0.9;
14	1	0.0012	0.00036	0	0	1	1	0	0.4	1	1.1	0.9;
15	1	0.0012	0.00036	0	0	1	1	0	0.4	1	1.1	0.9;
16	1	0.004	0.0012	0	0	1	1	0	0.4	1	1.1	0.9;
17	1	0.002	0.0006	0	0	1	1	0	0.4	1	1.1	0.9;
18	1	0.0012	0.00036	0	0	1	1	0	0.4	1	1.1	0.9;
19	1	0.004	0.0012	0	0	1	1	0	0.4	1	1.1	0.9;
20	1	0.0012	0.00036	0	0	1	1	0	0.4	1	1.1	0.9;
21	1	0.004	0.0012	0	0	1	1	0	0.4	1	1.1	0.9;
22	1	0.002	0.0006	0	0	1	1	0	0.4	1	1.1	0.9;
23	1	0.0012	0.00036	0	0	1	1	0	0.4	1	1.1	0.9;
24	1	0.004	0.0012	0	0	1	1	0	0.4	1	1.1	0.9;
25	1	0.0012	0.00036	0	0	1	1	0	0.4	1	1.1	0.9;
26	1	0.002	0.0006	0	0	1	1	0	0.4	1	1.1	0.9;
27	1	0.002	0.0006	0	0	1	1	0	0.4	1	1.1	0.9;
28	1	0.004	0.0012	0	0	1	1	0	0.4	1	1.1	0.9;
29	1	0.0012	0.00036	0	0	1	1	0	0.4	1	1.1	0.9;
30	1	0.004	0.0012	0	0	1	1	0	0.4	1	1.1	0.9;
31	1	0.0012	0.00036	0	0	1	1	0	0.4	1	1.1	0.9;
32	1	0.002	0.0006	0	0	1	1	0	0.4	1	1.1	0.9;
33	1	0.0012	0.00036	0	0	1	1	0	0.4	1	1.1	0.9;
34	1	0.0012	0.00036	0	0	1	1	0	0.4	1	1.1	0.9;
35	1	0.0012	0.00036	0	0	1	1	0	0.4	1	1.1	0.9;
36	1	0.002	0.0006	0	0	1	1	0	0.4	1	1.1	0.9;
37	1	0.0012	0.00036	0	0	1	1	0	0.4	1	1.1	0.9;
38	1	0.0012	0.00036	0	0	1	1	0	0.4	1	1.1	0.9;
39	1	0.002	0.0006	0	0	1	1	0	0.4	1	1.1	0.9;
40	1	0.002	0.0006	0	0	1	1	0	0.4	1	1.1	0.9;
41	1	0.002	0.0006	0	0	1	1	0	0.4	1	1.1	0.9;
42	1	0.002	0.0006	0	0	1	1	0	0.4	1	1.1	0.9;
43	1	0.0012	0.00036	0	0	1	1	0	0.4	1	1.1	0.9;
44	1	0.0012	0.00036	0	0	1	1	0	0.4	1	1.1	0.9;
45	1	0.004	0.0012	0	0	1	1	0	0.4	1	1.1	0.9;
46	1	0.0012	0.00036	0	0	1	1	0	0.4	1	1.1	0.9;
47	1	0.0012	0.00036	0	0	1	1	0	0.4	1	1.1	0.9;
48	1	0.002	0.0006	0	0	1	1	0	0.4	1	1.1	0.9;
49	1	0.002	0.0006	0	0	1	1	0	0.4	1	1.1	0.9;
50	1	0.0012	0.00036	0	0	1	1	0	0.4	1	1.1	0.9;
51	1	0.0012	0.00036	0	0	1	1	0	0.4	1	1.1	0.9;
52	1	0.0012	0.00036	0	0	1	1	0	0.4	1	1.1	0.9;
53	1	0.004	0.0012	0	0	1	1	0	0.4	1	1.1	0.9;
54	1	0.0012	0.00036	0	0	1	1	0	0.4	1	1.1	0.9;
55	1	0.002	0.0006	0	0	1	1	0	0.4	1	1.1	0.9;
56	1	0.002	0.0006	0	0	1	1	0	0.4	1	1.1	0.9;
57	1	0.0012	0.00036	0	0	1	1	0	0.4	1	1.1	0.9;
58	1	0.0012	0.00036	0	0	1	1	0	0.4	1	1.1	0.9;
59	1	0.0012	0.00036	0	0	1	1	0	0.4	1	1.1	0.9;
60	1	0.0012	0.00036	0	0	1	1	0	0.4	1	1.1	0.9;
61	1	0.002	0.0006	0	0	1	1	0	0.4	1	1.1	0.9;
62	1	0.002	0.0006	0	0	1	1	0	0.4	1	1.1	0.9;
63	1	0.0012	0.00036	0	0	1	1	0	0.4	1	1.1	0.9;
64	1	0.002	0.0006	0	0	1	1	0	0.4	1	1.1	0.9;
65	1	0.002	0.0006	0	0	1	1	0	0.4	1	1.1	0.9;
66	1	0.004	0.0012	0	0	1	1	0	0.4	1	1.1	0.9;
67	1	0.002	0.0006	0	0	1	1	0	0.4	1	1.1	0.9;
68	1	0.002	0.0006	0	0	1	1	0	0.4	1	1.1	0.9;
69	1	0.0012	0.00036	0	0	1	1	0	0.4	1	1.1	0.9;
70	1	0.002	0.0006	0	0	1	1	0	0.4	1	1.1	0.9;
71	1	0.0012	0.00036	0	0	1	1	0	0.4	1	1.1	0.9;
72	1	0.002	0.0006	0	0	1	1	0	0.4	1	1.1	0.9;
73	1	0.0012	0.00036	0	0	1	1	0	0.4	1	1.1	0.9;
74	1	0.0012	0.00036	0	0	1	1	0	0.4	1	1.1	0.9;
75	1	0.0012	0.00036	0	0	1	1	0	0.4	1	1.1	0.9;
76	1	0.002	0.0006	0	0	1	1	0	0.4	1	1.1	0.9;
77	1	0.0012	0.00036	0	0	1	1	0	0.4	1	1.1	0.9;
78	1	0.0012	0.00036	0	0	1	1	0	0.4	1	1.1	0.9;
79	1	0.002	0.0006	0	0	1	1	0	0.4	1	1.1	0.9;
80	1	0.0012	0.00036	0	0	1	1	0	0.4	1	1.1	0.9;
81	1	0.0012	0.00036	0	0	1	1	0	0.4	1	1.1	0.9;
82	1	0.002	0.0006	0	0	1	1	0	0.4	1	1.1	0.9;
83	1	0.002	0.0006	0	0	1	1	0	0.4	1	1.1	0.9;
84	1	0.0012	0.00036	0	0	1	1	0	0.4	1	1.1	0.9;
85	1	0.002	0.0006	0	0	1	1	0	0.4	1	1.1	0.9;
86	1	0.002	0.0006	0	0	1	1	0	0.4	1	1.1	0.9;
87	1	0.004	0.0012	0	0	1	1	0	0.4	1	1.1	0.9;
88	1	0.0012	0.00036	0	0	1	1	0	0.4	1	1.1	0.9;
89	1	0.0012	0.00036	0	0	1	1	0	0.4	1	1.1	0.9;
90	1	0.002	0.0006	0	0	1	1	0	0.4	1	1.1	0.9;
91	1	0.002	0.0006	0	0	1	1	0	0.4	1	1.1	0.9;
92	1	0.004	0.0012	0	0	1	1	0	0.4	1	1.1	0.9;
93	1	0.002	0.0006	0	0	1	1	0	0.4	1	1.1	0.9;
94	1	0.002	0.0006	0	0	1	1	0	0.4	1	1.1	0.9;
95	1	0.002	0.0006	0	0	1	1	0	0.4	1	1.1	0.9;
96	1	0.002	0.0006	0	0	1	1	0	0.4	1	1.1	0.9;
97	1	0.002	0.0006	0	0	1	1	0	0.4	1	1.1	0.9;
98	1	0.002	0.0006	0	0	1	1	0	0.4	1	1.1	0.9;
99	1	0.0012	0.00036	0	0	1	1	0	0.4	1	1.1	0.9;
100	1	0.002	0.0006	0	0	1	1	0	0.4	1	1.1	0.9;
101	1	0.002	0.0006	0	0	1	1	0	0.4	1	1.1	0.9;
102	1	0.0012	0.00036	0	0	1	1	0	0.4	1	1.1	0.9;
103	1	0.002	0.0006	0	0	1	1	0	0.4	1	1.1	0.9;
104	1	0.0012	0.00036	0	0	1	1	0	0.4	1	1.1	0.9;
105	1	0.004	0.0012	0	0	1	1	0	0.4	1	1.1	0.9;
106	1	0.0012	0.00036	0	0	1	1	0	0.4	1	1.1	0.9;
107	1	0.0012	0.00036	0	0	1	1	0	0.4	1	1.1	0.9;
108	1	0.002	0.0006	0	0	1	1	0	0.4	1	1.1	0.9;
109	1	0.0012	0.00036	0	0	1	1	0	0.4	1	1.1	0.9;
110	1	0.002	0.0006	0	0	1	1	0	0.4	1	1.1	0.9;
111	1	0.002	0.0006	0	0	1	1	0	0.4	1	1.1	0.9;
112	1	0.002	0.0006	0	0	1	1	0	0.4	1	1.1	0.9;
113	1	0.002	0.0006	0	0	1	1	0	0.4	1	1.1	0.9;
114	1	0.004	0.0012	0	0	1	1	0	0.4	1	1.1	0.9;
%115	1	0	0	0	0	1	1	0	0.4	1	1.1	0.9;
];
%% generator data
% bus Pg Qg Qmax Qmin Vg mBase status Pmax Pmin Pc1 Pc2 Qc1min Qc1max Qc2min Qc2max ramp_agc ramp_10 ramp_30 ramp_q apf
mpc.gen = [
1 0 0 1000 -1000 1.0 0.01 1 1000 0 0 0 0 0 0 0 0 0 0 0 0;
];
%% branch data
%fbus tbus	r x b rA rB rC rat ang status angmin angmax
mpc.branch = [
1	2	6.56E-04	3.75E-04	0	0.290984536	0.290984536	0.290984536	0	0	1	-360	360;
2	3	8.75E-05	5.00E-05	0	0.290984536	0.290984536	0.290984536	0	0	1	-360	360;
3	4	9.59E-06	5.48E-06	0	0.290984536	0.290984536	0.290984536	0	0	1	-360	360;
4	5	7.26E-05	4.15E-05	0	0.290984536	0.290984536	0.290984536	0	0	1	-360	360;
5	6	5.90E-05	3.37E-05	0	0.290984536	0.290984536	0.290984536	0	0	1	-360	360;
6	7	2.86E-05	1.63E-05	0	0.290984536	0.290984536	0.290984536	0	0	1	-360	360;
7	8	1.20E-04	6.88E-05	0	0.290984536	0.290984536	0.290984536	0	0	1	-360	360;
8	9	3.45E-05	1.97E-05	0	0.290984536	0.290984536	0.290984536	0	0	1	-360	360;
9	10	8.20E-05	4.69E-05	0	0.290984536	0.290984536	0.290984536	0	0	1	-360	360;
10	11	1.39E-04	7.92E-05	0	0.290984536	0.290984536	0.290984536	0	0	1	-360	360;
11	12	4.58E-05	2.61E-05	0	0.290984536	0.290984536	0.290984536	0	0	1	-360	360;
12	13	3.70E-05	2.12E-05	0	0.290984536	0.290984536	0.290984536	0	0	1	-360	360;
13	14	1.24E-04	7.09E-05	0	0.290984536	0.290984536	0.290984536	0	0	1	-360	360;
14	15	1.75E-04	1.00E-04	0	0.290984536	0.290984536	0.290984536	0	0	1	-360	360;
15	16	1.10E-04	5.89E-05	0	0.290984536	0.290984536	0.290984536	0	0	1	-360	360;
16	17	7.91E-05	4.24E-05	0	0.290984536	0.290984536	0.290984536	0	0	1	-360	360;
17	18	1.31E-04	7.04E-05	0	0.290984536	0.290984536	0.290984536	0	0	1	-360	360;
18	19	4.68E-05	2.51E-05	0	0.290984536	0.290984536	0.290984536	0	0	1	-360	360;
19	20	2.55E-05	1.37E-05	0	0.290984536	0.290984536	0.290984536	0	0	1	-360	360;
20	21	4.60E-05	2.47E-05	0	0.290984536	0.290984536	0.290984536	0	0	1	-360	360;
21	22	9.30E-05	4.98E-05	0	0.290984536	0.290984536	0.290984536	0	0	1	-360	360;
22	23	6.49E-05	3.48E-05	0	0.290984536	0.290984536	0.290984536	0	0	1	-360	360;
23	24	8.75E-05	4.69E-05	0	0.290984536	0.290984536	0.290984536	0	0	1	-360	360;
24	25	4.01E-05	2.15E-05	0	0.290984536	0.290984536	0.290984536	0	0	1	-360	360;
25	26	4.61E-05	2.47E-05	0	0.290984536	0.290984536	0.290984536	0	0	1	-360	360;
26	27	8.10E-05	4.34E-05	0	0.290984536	0.290984536	0.290984536	0	0	1	-360	360;
27	28	6.71E-05	3.59E-05	0	0.290984536	0.290984536	0.290984536	0	0	1	-360	360;
28	29	2.56E-05	1.37E-05	0	0.290984536	0.290984536	0.290984536	0	0	1	-360	360;
29	30	5.50E-05	2.95E-05	0	0.290984536	0.290984536	0.290984536	0	0	1	-360	360;
30	31	4.33E-05	2.32E-05	0	0.290984536	0.290984536	0.290984536	0	0	1	-360	360;
31	32	9.46E-05	5.07E-05	0	0.290984536	0.290984536	0.290984536	0	0	1	-360	360;
32	33	9.69E-05	5.19E-05	0	0.290984536	0.290984536	0.290984536	0	0	1	-360	360;
33	34	1.02E-04	5.44E-05	0	0.290984536	0.290984536	0.290984536	0	0	1	-360	360;
34	35	4.57E-05	2.45E-05	0	0.290984536	0.290984536	0.290984536	0	0	1	-360	360;
35	36	1.48E-04	7.95E-05	0	0.290984536	0.290984536	0.290984536	0	0	1	-360	360;
36	37	7.93E-05	4.25E-05	0	0.290984536	0.290984536	0.290984536	0	0	1	-360	360;
37	38	2.15E-05	1.15E-05	0	0.290984536	0.290984536	0.290984536	0	0	1	-360	360;
38	39	9.34E-05	5.00E-05	0	0.290984536	0.290984536	0.290984536	0	0	1	-360	360;
39	40	2.43E-05	1.30E-05	0	0.290984536	0.290984536	0.290984536	0	0	1	-360	360;
40	41	2.07E-05	1.11E-05	0	0.290984536	0.290984536	0.290984536	0	0	1	-360	360;
41	42	5.45E-05	2.92E-05	0	0.290984536	0.290984536	0.290984536	0	0	1	-360	360;
42	43	1.00E-04	5.36E-05	0	0.290984536	0.290984536	0.290984536	0	0	1	-360	360;
43	44	8.75E-05	4.69E-05	0	0.290984536	0.290984536	0.290984536	0	0	1	-360	360;
44	45	4.96E-05	2.65E-05	0	0.290984536	0.290984536	0.290984536	0	0	1	-360	360;
45	46	6.08E-05	3.26E-05	0	0.290984536	0.290984536	0.290984536	0	0	1	-360	360;
46	47	8.81E-05	4.72E-05	0	0.290984536	0.290984536	0.290984536	0	0	1	-360	360;
47	48	1.06E-04	5.66E-05	0	0.290984536	0.290984536	0.290984536	0	0	1	-360	360;
48	49	7.75E-05	4.15E-05	0	0.290984536	0.290984536	0.290984536	0	0	1	-360	360;
49	50	5.84E-05	3.13E-05	0	0.290984536	0.290984536	0.290984536	0	0	1	-360	360;
15	51	3.50E-04	1.88E-04	0	0.290984536	0.290984536	0.290984536	0	0	1	-360	360;
51	52	1.75E-04	9.38E-05	0	0.290984536	0.290984536	0.290984536	0	0	1	-360	360;
52	53	7.89E-05	4.23E-05	0	0.290984536	0.290984536	0.290984536	0	0	1	-360	360;
53	54	9.94E-05	5.33E-05	0	0.290984536	0.290984536	0.290984536	0	0	1	-360	360;
54	55	8.75E-05	4.69E-05	0	0.290984536	0.290984536	0.290984536	0	0	1	-360	360;
55	56	4.95E-05	2.65E-05	0	0.290984536	0.290984536	0.290984536	0	0	1	-360	360;
56	57	8.51E-05	4.56E-05	0	0.290984536	0.290984536	0.290984536	0	0	1	-360	360;
57	58	9.09E-05	4.87E-05	0	0.290984536	0.290984536	0.290984536	0	0	1	-360	360;
58	59	4.79E-06	2.57E-06	0	0.290984536	0.290984536	0.290984536	0	0	1	-360	360;
59	60	7.07E-06	3.79E-06	0	0.290984536	0.290984536	0.290984536	0	0	1	-360	360;
60	61	7.35E-05	3.94E-05	0	0.290984536	0.290984536	0.290984536	0	0	1	-360	360;
61	62	4.30E-05	2.31E-05	0	0.290984536	0.290984536	0.290984536	0	0	1	-360	360;
53	63	1.75E-04	9.38E-05	0	0.290984536	0.290984536	0.290984536	0	0	1	-360	360;
63	64	5.67E-05	3.04E-05	0	0.290984536	0.290984536	0.290984536	0	0	1	-360	360;
64	65	7.74E-05	4.15E-05	0	0.290984536	0.290984536	0.290984536	0	0	1	-360	360;
51	66	1.75E-04	9.38E-05	0	0.290984536	0.290984536	0.290984536	0	0	1	-360	360;
66	67	1.12E-04	6.01E-05	0	0.290984536	0.290984536	0.290984536	0	0	1	-360	360;
67	68	1.28E-04	6.85E-05	0	0.290984536	0.290984536	0.290984536	0	0	1	-360	360;
68	69	5.67E-05	3.04E-05	0	0.290984536	0.290984536	0.290984536	0	0	1	-360	360;
69	70	1.15E-04	6.15E-05	0	0.290984536	0.290984536	0.290984536	0	0	1	-360	360;
70	71	7.19E-05	3.85E-05	0	0.290984536	0.290984536	0.290984536	0	0	1	-360	360;
71	72	2.20E-05	1.18E-05	0	0.290984536	0.290984536	0.290984536	0	0	1	-360	360;
72	73	1.04E-04	5.55E-05	0	0.290984536	0.290984536	0.290984536	0	0	1	-360	360;
73	74	7.78E-05	4.17E-05	0	0.290984536	0.290984536	0.290984536	0	0	1	-360	360;
74	75	6.20E-05	3.32E-05	0	0.290984536	0.290984536	0.290984536	0	0	1	-360	360;
75	76	1.31E-04	7.00E-05	0	0.290984536	0.290984536	0.290984536	0	0	1	-360	360;
76	77	8.43E-05	4.51E-05	0	0.290984536	0.290984536	0.290984536	0	0	1	-360	360;
77	78	7.62E-05	4.08E-05	0	0.290984536	0.290984536	0.290984536	0	0	1	-360	360;
78	79	1.33E-04	7.14E-05	0	0.290984536	0.290984536	0.290984536	0	0	1	-360	360;
79	80	1.34E-04	7.20E-05	0	0.290984536	0.290984536	0.290984536	0	0	1	-360	360;
80	81	8.97E-05	4.80E-05	0	0.290984536	0.290984536	0.290984536	0	0	1	-360	360;
81	82	9.07E-05	4.86E-05	0	0.290984536	0.290984536	0.290984536	0	0	1	-360	360;
82	83	8.06E-05	4.32E-05	0	0.290984536	0.290984536	0.290984536	0	0	1	-360	360;
83	84	3.74E-05	2.00E-05	0	0.290984536	0.290984536	0.290984536	0	0	1	-360	360;
84	85	2.86E-05	1.53E-05	0	0.290984536	0.290984536	0.290984536	0	0	1	-360	360;
78	86	1.75E-04	9.38E-05	0	0.290984536	0.290984536	0.290984536	0	0	1	-360	360;
86	87	1.18E-04	6.33E-05	0	0.290984536	0.290984536	0.290984536	0	0	1	-360	360;
87	88	6.45E-05	3.46E-05	0	0.290984536	0.290984536	0.290984536	0	0	1	-360	360;
88	89	4.23E-05	2.27E-05	0	0.290984536	0.290984536	0.290984536	0	0	1	-360	360;
89	90	8.25E-05	4.42E-05	0	0.290984536	0.290984536	0.290984536	0	0	1	-360	360;
90	91	8.75E-05	4.69E-05	0	0.290984536	0.290984536	0.290984536	0	0	1	-360	360;
77	92	1.75E-04	9.38E-05	0	0.290984536	0.290984536	0.290984536	0	0	1	-360	360;
92	93	8.19E-05	4.39E-05	0	0.290984536	0.290984536	0.290984536	0	0	1	-360	360;
93	94	8.47E-05	4.54E-05	0	0.290984536	0.290984536	0.290984536	0	0	1	-360	360;
94	95	1.24E-04	6.67E-05	0	0.290984536	0.290984536	0.290984536	0	0	1	-360	360;
95	96	8.75E-05	4.69E-05	0	0.290984536	0.290984536	0.290984536	0	0	1	-360	360;
96	97	1.49E-04	7.97E-05	0	0.290984536	0.290984536	0.290984536	0	0	1	-360	360;
97	98	6.21E-05	3.33E-05	0	0.290984536	0.290984536	0.290984536	0	0	1	-360	360;
98	99	1.11E-04	5.97E-05	0	0.290984536	0.290984536	0.290984536	0	0	1	-360	360;
99	100	9.87E-05	5.29E-05	0	0.290984536	0.290984536	0.290984536	0	0	1	-360	360;
100	101	1.15E-04	6.17E-05	0	0.290984536	0.290984536	0.290984536	0	0	1	-360	360;
101	102	1.26E-04	6.77E-05	0	0.290984536	0.290984536	0.290984536	0	0	1	-360	360;
102	103	2.25E-05	1.21E-05	0	0.290984536	0.290984536	0.290984536	0	0	1	-360	360;
103	104	1.33E-04	7.14E-05	0	0.290984536	0.290984536	0.290984536	0	0	1	-360	360;
104	105	4.73E-06	2.54E-06	0	0.290984536	0.290984536	0.290984536	0	0	1	-360	360;
105	106	7.24E-05	3.88E-05	0	0.290984536	0.290984536	0.290984536	0	0	1	-360	360;
106	107	5.15E-05	2.76E-05	0	0.290984536	0.290984536	0.290984536	0	0	1	-360	360;
107	108	5.05E-05	2.71E-05	0	0.290984536	0.290984536	0.290984536	0	0	1	-360	360;
108	109	1.34E-04	7.20E-05	0	0.290984536	0.290984536	0.290984536	0	0	1	-360	360;
109	110	9.51E-05	5.09E-05	0	0.290984536	0.290984536	0.290984536	0	0	1	-360	360;
110	111	3.80E-05	2.03E-05	0	0.290984536	0.290984536	0.290984536	0	0	1	-360	360;
111	112	5.14E-05	2.75E-05	0	0.290984536	0.290984536	0.290984536	0	0	1	-360	360;
112	113	1.18E-05	6.35E-06	0	0.290984536	0.290984536	0.290984536	0	0	1	-360	360;
113	114	2.63E-04	1.41E-04	0	0.290984536	0.290984536	0.290984536	0	0	1	-360	360;
%115	1	0.0002875	0.001	0	0.4	0.4	0.4	0.94	0	1	-360	360;
];
%% generator cost data
%	1	startup	shutdown	n	x1	y1	...	xn	yn
%	2	startup	shutdown	n	c(n-1)	...	c0
mpc.gencost = [
    2	0      0	3	0    0.3	 0;
    ];